@<TRIPOS>MOLECULE
BEN
   12   12    1    0    0
SMALL
NO_CHARGES
****
Energy = 0

@<TRIPOS>ATOM
      1  C          1.2300    0.7100    0.0000    C    1  BEN        0.000000
      2  H          2.1620    1.2490    0.0000    H    1  BEN        0.000000
      3  C          0.0000    1.4200    0.0000    C    1  BEN        0.000000
      4  H          0.0000    2.4970    0.0000    H    1  BEN        0.000000
      5  C0        -1.2300    0.7100    0.0000    C    1  BEN        0.000000
      6  H0        -2.1620    1.2490    0.0000    H    1  BEN        0.000000
      7  C1        -1.2300   -0.7100    0.0000    C    1  BEN        0.000000
      8  H1        -2.1620   -1.2490    0.0000    H    1  BEN        0.000000
      9  C2         0.0000   -1.4200    0.0000    C    1  BEN        0.000000
     10  H2         0.0000   -2.4970    0.0000    H    1  BEN        0.000000
     11  C3         1.2300   -0.7100    0.0000    C    1  BEN        0.000000
     12  H3         2.1620   -1.2490    0.0000    H    1  BEN        0.000000
@<TRIPOS>BOND
    1     1     2  1
    2     1     3  2
    3     1    11  1
    4     3     4  1
    5     3     5  1
    6     5     6  1
    7     5     7  2
    8     7     8  1
    9     7     9  1
   10     9    10  1
   11     9    11  2
   12    11    12  1

@<TRIPOS>SUBSTRUCTURE
1 ****        1 TEMP                        0 ****  **** 0 ROOT

#generated by VMD
